Input Parameters:
   integrator                     = md
   tinit                          = 0
   dt                             = 0.001
   nsteps                         = 50000000
   init-step                      = 0
   simulation-part                = 1
   comm-mode                      = Linear
   nstcomm                        = 100
   bd-fric                        = 0
   ld-seed                        = -636705402
   emtol                          = 10
   emstep                         = 0.01
   niter                          = 20
   fcstep                         = 0
   nstcgsteep                     = 1000
   nbfgscorr                      = 10
   rtpi                           = 0.05
   nstxout                        = 0
   nstvout                        = 0
   nstfout                        = 0
   nstlog                         = 1000
   nstcalcenergy                  = 100
   nstenergy                      = 5000
   nstxout-compressed             = 50000
   compressed-x-precision         = 1000
   cutoff-scheme                  = Verlet
   nstlist                        = 20
   ns-type                        = Grid
   pbc                            = xyz
   periodic-molecules             = false
   verlet-buffer-tolerance        = 0.005
   rlist                          = 1.404
   coulombtype                    = PME
   coulomb-modifier               = Potential-shift
   rcoulomb-switch                = 0
   rcoulomb                       = 1.4
   epsilon-r                      = 1
   epsilon-rf                     = inf
   vdw-type                       = Cut-off
   vdw-modifier                   = Potential-shift
   rvdw-switch                    = 0
   rvdw                           = 1.4
   DispCorr                       = EnerPres
   table-extension                = 1
   fourierspacing                 = 0.12
   fourier-nx                     = 48
   fourier-ny                     = 48
   fourier-nz                     = 72
   pme-order                      = 4
   ewald-rtol                     = 1e-05
   ewald-rtol-lj                  = 0.001
   lj-pme-comb-rule               = Geometric
   ewald-geometry                 = 0
   epsilon-surface                = 0
   implicit-solvent               = No
   gb-algorithm                   = Still
   nstgbradii                     = 1
   rgbradii                       = 1
   gb-epsilon-solvent             = 80
   gb-saltconc                    = 0
   gb-obc-alpha                   = 1
   gb-obc-beta                    = 0.8
   gb-obc-gamma                   = 4.85
   gb-dielectric-offset           = 0.009
   sa-algorithm                   = Ace-approximation
   sa-surface-tension             = 2.05016
   tcoupl                         = V-rescale
   nsttcouple                     = 20
   nh-chain-length                = 0
   print-nose-hoover-chain-variables = false
   pcoupl                         = Parrinello-Rahman
   pcoupltype                     = Isotropic
   nstpcouple                     = 20
   tau-p                          = 1.01
   compressibility (3x3):
      compressibility[    0]={ 4.50000e-05,  0.00000e+00,  0.00000e+00}
      compressibility[    1]={ 0.00000e+00,  4.50000e-05,  0.00000e+00}
      compressibility[    2]={ 0.00000e+00,  0.00000e+00,  4.50000e-05}
   ref-p (3x3):
      ref-p[    0]={ 1.00000e+00,  0.00000e+00,  0.00000e+00}
      ref-p[    1]={ 0.00000e+00,  1.00000e+00,  0.00000e+00}
      ref-p[    2]={ 0.00000e+00,  0.00000e+00,  1.00000e+00}
   refcoord-scaling               = COM
   posres-com (3):
      posres-com[0]= 6.35098e-01
      posres-com[1]= 4.50298e-01
      posres-com[2]= 6.07288e-01
   posres-comB (3):
      posres-comB[0]= 6.35098e-01
      posres-comB[1]= 4.50298e-01
      posres-comB[2]= 6.07288e-01
   QMMM                           = false
   QMconstraints                  = 0
   QMMMscheme                     = 0
   MMChargeScaleFactor            = 1
qm-opts:
   ngQM                           = 0
   constraint-algorithm           = Lincs
   continuation                   = false
   Shake-SOR                      = false
   shake-tol                      = 0.0001
   lincs-order                    = 8
   lincs-iter                     = 2
   lincs-warnangle                = 30
   nwall                          = 0
   wall-type                      = 9-3
   wall-r-linpot                  = -1
   wall-atomtype[0]               = -1
   wall-atomtype[1]               = -1
   wall-density[0]                = 0
   wall-density[1]                = 0
   wall-ewald-zfac                = 3
   pull                           = true
   pull-cylinder-r                = 1.5
   pull-constr-tol                = 1e-06
   pull-print-COM                 = false
   pull-print-ref-value           = false
   pull-print-components          = false
   pull-nstxout                   = 50
   pull-nstfout                   = 50
   pull-ngroups                   = 3
   pull-group 0:
     atom: not available
     weight: not available
     pbcatom                        = -1
   pull-group 1:
     atom (1):
        atom[0]=300
     weight: not available
     pbcatom                        = -1
   pull-group 2:
     atom (1):
        atom[0]=36
     weight: not available
     pbcatom                        = -1
   pull-ncoords                   = 1
   pull-coord 0:
   type                           = umbrella
   geometry                       = distance
   group[0]                       = 1
   group[1]                       = 2
   dim (3):
      dim[0]=0
      dim[1]=0
      dim[2]=1
   origin (3):
      origin[0]= 0.00000e+00
      origin[1]= 0.00000e+00
      origin[2]= 0.00000e+00
   vec (3):
      vec[0]= 0.00000e+00
      vec[1]= 0.00000e+00
      vec[2]= 0.00000e+00
   start                          = true
   init                           = 1.48899
   rate                           = 0
   k                              = 24000
   kB                             = 24000
   awh                            = false
   rotation                       = false
   interactiveMD                  = false
   disre                          = No
   disre-weighting                = Conservative
   disre-mixed                    = false
   dr-fc                          = 1000
   dr-tau                         = 0
   nstdisreout                    = 100
   orire-fc                       = 0
   orire-tau                      = 0
   nstorireout                    = 100
   free-energy                    = no
   cos-acceleration               = 0
   deform (3x3):
      deform[    0]={ 0.00000e+00,  0.00000e+00,  0.00000e+00}
      deform[    1]={ 0.00000e+00,  0.00000e+00,  0.00000e+00}
      deform[    2]={ 0.00000e+00,  0.00000e+00,  0.00000e+00}
   simulated-tempering            = false
   swapcoords                     = no
   userint1                       = 0
   userint2                       = 0
   userint3                       = 0
   userint4                       = 0
   userreal1                      = 0
   userreal2                      = 0
   userreal3                      = 0
   userreal4                      = 0
   applied-forces:
     electric-field:
       x:
         E0                       = 0
         omega                    = 0
         t0                       = 0
         sigma                    = 0
       y:
         E0                       = 0
         omega                    = 0
         t0                       = 0
         sigma                    = 0
       z:
         E0                       = 0
         omega                    = 0
         t0                       = 0
         sigma                    = 0
grpopts:
   nrdf:     699.954       45327
   ref-t:         300         300
   tau-t:           1           1
annealing:          No          No
annealing-npoints:           0           0
   acc:	           0           0           0
   nfreeze:           N           N           N
   energygrp-flags[  0]: 0

Changing nstlist from 20 to 100, rlist from 1.404 to 1.514

Initializing Domain Decomposition on 32 ranks
Dynamic load balancing: locked
Initial maximum inter charge-group distances:
    two-body bonded interactions: 0.396 nm, LJ-14, atoms 306 311
  multi-body bonded interactions: 0.396 nm, Proper Dih., atoms 311 306
Minimum cell size due to bonded interactions: 0.435 nm
Maximum distance for 9 constraints, at 120 deg. angles, all-trans: 1.319 nm
Estimated maximum distance required for P-LINCS: 1.319 nm
This distance will limit the DD cell size, you can override this with -rcon
Guess for relative PME load: 0.11
Will use 24 particle-particle and 8 PME only ranks
This is a guess, check the performance at the end of the log file
Using 8 separate PME ranks, as guessed by mdrun
Scaling the initial minimum size with 1/0.8 (option -dds) = 1.25
Optimizing the DD grid for 24 cells with a minimum initial size of 1.649 nm
The maximum allowed number of cells is: X 3 Y 3 Z 4
Domain decomposition grid 3 x 2 x 4, separate PME ranks 8
PME domain decomposition: 8 x 1 x 1
Interleaving PP and PME ranks
This rank does only particle-particle work.

Domain decomposition rank 0, coordinates 0 0 0

The initial number of communication pulses is: X 1 Y 1 Z 1
The initial domain decomposition cell size is: X 1.80 nm Y 2.71 nm Z 1.97 nm

The maximum allowed distance for charge groups involved in interactions is:
                 non-bonded interactions           1.514 nm
(the following are initial values, they could change due to box deformation)
            two-body bonded interactions  (-rdd)   1.514 nm
          multi-body bonded interactions  (-rdd)   1.514 nm
              virtual site constructions  (-rcon)  1.804 nm
  atoms separated by up to 9 constraints  (-rcon)  1.804 nm

When dynamic load balancing gets turned on, these settings will change to:
The maximum number of communication pulses is: X 2 Y 1 Z 2
The minimum size for domain decomposition cells is 1.319 nm
The requested allowed shrink of DD cells (option -dds) is: 0.80
The allowed shrink of domain decomposition cells is: X 0.73 Y 0.56 Z 0.67
The maximum allowed distance for charge groups involved in interactions is:
                 non-bonded interactions           1.514 nm
            two-body bonded interactions  (-rdd)   1.514 nm
          multi-body bonded interactions  (-rdd)   1.319 nm
              virtual site constructions  (-rcon)  1.319 nm
  atoms separated by up to 9 constraints  (-rcon)  1.319 nm

Using 32 MPI processes
Using 1 OpenMP thread per MPI process

Non-default thread affinity set probably by the OpenMP library,
disabling internal thread affinity
System total charge: 0.000
Will do PME sum in reciprocal space for electrostatic interactions.

Using a Gaussian width (1/beta) of 0.448228 nm for Ewald
Potential shift: LJ r^-12: -1.764e-02 r^-6: -1.328e-01, Ewald -7.143e-06
Initialized non-bonded Ewald correction tables, spacing: 1.10e-03 size: 1270

Long Range LJ corr.: <C6> 2.5808e-04
Generated table with 1257 data points for Ewald.
Tabscale = 500 points/nm
Generated table with 1257 data points for LJ6.
Tabscale = 500 points/nm
Generated table with 1257 data points for LJ12.
Tabscale = 500 points/nm
Generated table with 1257 data points for 1-4 COUL.
Tabscale = 500 points/nm
Generated table with 1257 data points for 1-4 LJ6.
Tabscale = 500 points/nm
Generated table with 1257 data points for 1-4 LJ12.
Tabscale = 500 points/nm

Using SIMD 4x8 nonbonded short-range kernels

Using a dual 4x8 pair-list setup updated with dynamic pruning:
  outer list: updated every 100 steps, buffer 0.114 nm, rlist 1.514 nm
  inner list: updated every  18 steps, buffer 0.001 nm, rlist 1.401 nm
At tolerance 0.005 kJ/mol/ps per atom, equivalent classical 1x1 list would be:
  outer list: updated every 100 steps, buffer 0.243 nm, rlist 1.643 nm
  inner list: updated every  18 steps, buffer 0.037 nm, rlist 1.437 nm

Using full Lennard-Jones parameter combination matrix

Removing pbc first time

Will apply potential COM pulling
with 1 pull coordinate and 2 groups
Pull group 1:     1 atoms, mass    12.010
Pull group 2:     1 atoms, mass    12.010

Initializing Parallel LINear Constraint Solver

The number of constraints is 356
There are inter charge-group constraints,
will communicate selected coordinates each lincs iteration

Linking all bonded interactions to atoms
There are 7540 inter charge-group virtual sites,
will an extra communication step for selected coordinates and forces

Intra-simulation communication will occur every 20 steps.
Center of mass motion removal mode is Linear
We have the following groups for center of mass motion removal:
  0:  rest

There are: 23002 Atoms
There are: 7540 VSites
Atom distribution over 24 domains: av 1272 stddev 43 min 1224 max 1311

Constraining the starting coordinates (step 0)

Constraining the coordinates at t0-dt (step 0)
RMS relative constraint deviation after constraining: 0.00e+00
Initial temperature: 299.765 K

Started mdrun on rank 0 Tue Jul  6 12:40:54 2021
           Step           Time
              0        0.00000

   Energies (kJ/mol)
          Angle    Proper Dih.  Improper Dih.          LJ-14     Coulomb-14
    5.88327e+02    1.02250e+03    1.16379e+02    3.65306e+02    4.89391e+03
        LJ (SR)  Disper. corr.   Coulomb (SR)   Coul. recip. Position Rest.
    5.72924e+04   -1.59448e+03   -4.77124e+05    6.24131e+02    1.11793e-02
    4.25365e-08   -4.13816e+05    5.75893e+04   -3.56226e+05   -3.56212e+05
    Temperature Pres. DC (bar) Pressure (bar)   Constr. rmsd
    3.00971e+02   -1.14951e+02    1.46337e+02    1.81644e-06

	<====  A V E R A G E S  ====>

	Statistics over 50000001 steps using 500001 frames

   Energies (kJ/mol)
          Angle    Proper Dih.  Improper Dih.          LJ-14     Coulomb-14
    5.78557e+02    9.31375e+02    1.10465e+02    3.90281e+02    5.01906e+03
        LJ (SR)  Disper. corr.   Coulomb (SR)   Coul. recip. Position Rest.
    5.67646e+04   -1.59296e+03   -4.76335e+05    6.37081e+02    1.33425e+01
   COM Pull En.      Potential    Kinetic En.   Total Energy  Conserved En.
    1.24294e+00   -4.13482e+05    5.74136e+04   -3.56069e+05   -1.39653e+05
    Temperature Pres. DC (bar) Pressure (bar)   Constr. rmsd
    3.00053e+02   -1.14733e+02    9.29470e-01    0.00000e+00

          Box-X          Box-Y          Box-Z
    5.41247e+00    5.41247e+00    7.87269e+00

   Total Virial (kJ/mol)
    1.91344e+04    9.16227e+00   -2.28335e+00
    9.12845e+00    1.91339e+04   -5.31821e-01
   -2.25899e+00   -4.64804e-01    1.91306e+04

   Pressure (bar)
    1.11759e+00   -7.14258e-01   -7.91745e-02
   -7.09394e-01    1.27207e+00    5.10077e-01
   -8.27091e-02    5.00400e-01    3.98755e-01

      T-Protein  T-non-Protein
    3.00329e+02    3.00049e+02
